
 *******************************************************************************

         NASA-GLENN CHEMICAL EQUILIBRIUM PROGRAM CEA2, MAY 21, 2004
                   BY  BONNIE MCBRIDE AND SANFORD GORDON
      REFS: NASA RP-1311, PART I, 1994 AND NASA RP-1311, PART II, 1996

 *******************************************************************************



 problem    o/f=1.3,1.4,1.5,1.6,
     rocket  equilibrium  frozen  nfz=1  tcest,k=3800
   p,bar=20,
 react
   fuel=C2H5OH(L) wt=95  t,k=298
   oxid=O2 wt=100  t,k=80
   name=H2O(L) wt=5  t,k=298
 output
 end

 OPTIONS: TP=F  HP=F  SP=F  TV=F  UV=F  SV=F  DETN=F  SHOCK=F  REFL=F  INCD=F
 RKT=T  FROZ=T  EQL=T  IONS=F  SIUNIT=T  DEBUGF=F  SHKDBG=F  DETDBG=F  TRNSPT=F

 TRACE= 0.00E+00  S/R= 0.000000E+00  H/R= 0.000000E+00  U/R= 0.000000E+00

 Pc,BAR =    20.000000

 Pc/P =

 SUBSONIC AREA RATIOS =

 SUPERSONIC AREA RATIOS =

 NFZ=  1  Mdot/Ac= 0.000000E+00  Ac/At= 0.000000E+00

 YOUR ASSIGNED TEMPERATURE   80.00K FOR O2             
IS OUTSIDE ITS TEMPERATURE RANGE  160.00 TO 24000.00K (REACT)

 ERROR IN REACTANTS DATASET (INPUT)

 FATAL ERROR IN DATASET (INPUT)



